Version 4
SHEET 1 1424 832
WIRE 432 -368 224 -368
WIRE 960 -368 800 -368
WIRE 800 -304 800 -368
WIRE 960 -304 960 -368
WIRE 224 -288 224 -368
WIRE 432 -288 432 -368
WIRE 960 -144 960 -224
WIRE 224 -128 224 -208
WIRE 432 -48 432 -208
WIRE 544 -48 432 -48
WIRE 800 -48 800 -224
WIRE 800 -48 736 -48
WIRE 864 -48 800 -48
WIRE 1040 -48 864 -48
WIRE 1184 -48 1104 -48
WIRE 1232 -48 1184 -48
WIRE 864 -32 864 -48
WIRE 64 48 -16 48
WIRE 208 48 144 48
WIRE 384 48 272 48
WIRE 544 48 384 48
WIRE 768 48 736 48
WIRE 864 48 864 32
WIRE 864 48 768 48
WIRE 384 96 384 48
WIRE -288 144 -336 144
WIRE -208 144 -288 144
WIRE -16 144 -16 48
WIRE -16 144 -128 144
WIRE 304 144 -16 144
WIRE 336 144 304 144
WIRE -16 240 -16 144
WIRE -336 256 -336 144
WIRE 768 256 768 48
WIRE -336 496 -336 336
WIRE -16 496 -16 320
WIRE -16 496 -336 496
WIRE 144 496 -16 496
WIRE 384 496 384 192
WIRE 384 496 144 496
WIRE 144 528 144 496
FLAG 144 528 0
FLAG -288 144 in
FLAG 768 256 0
FLAG 960 -144 0
FLAG 224 -128 0
FLAG 304 144 ref
FLAG 1184 -48 out
SYMBOL voltage 224 -304 R0
SYMATTR InstName Vbias
SYMATTR Value 4
SYMBOL res 448 -192 R180
WINDOW 0 36 76 Left 2
WINDOW 3 36 40 Left 2
SYMATTR InstName R1
SYMATTR Value 400
SYMBOL res 160 32 R90
WINDOW 0 0 56 VBottom 2
WINDOW 3 32 56 VTop 2
SYMATTR InstName R2
SYMATTR Value 16k
SYMBOL voltage -336 240 R0
WINDOW 123 43 90 Left 2
WINDOW 39 0 0 Left 0
WINDOW 0 44 31 Left 2
WINDOW 3 56 65 Left 2
SYMATTR Value2 AC 1
SYMATTR InstName V4
SYMATTR Value 5
SYMBOL res -112 128 R90
WINDOW 0 0 56 VBottom 2
WINDOW 3 32 56 VTop 2
SYMATTR InstName R4
SYMATTR Value 16k
SYMBOL MyTL431 384 144 R0
SYMATTR InstName U1
SYMBOL cap 272 32 R90
WINDOW 0 0 32 VBottom 2
WINDOW 3 32 32 VTop 2
SYMATTR InstName C2
SYMATTR Value 10n
SYMBOL MyOpto 640 0 R0
WINDOW 123 0 108 Center 2
WINDOW 39 0 136 Center 2
WINDOW 40 0 164 Center 2
SYMATTR InstName U3
SYMBOL res 784 -320 R0
SYMATTR InstName R3
SYMATTR Value 7.6k
SYMBOL cap 848 -32 R0
SYMATTR InstName C1
SYMATTR Value 1p
SYMBOL voltage 960 -320 R0
SYMATTR InstName Vcc
SYMATTR Value 10
SYMBOL res 0 336 R180
WINDOW 0 36 76 Left 2
WINDOW 3 36 40 Left 2
SYMATTR InstName R5
SYMATTR Value 16k
SYMBOL Control\\gain 1072 -48 R0
WINDOW 3 5 62 Bottom 2
SYMATTR Value A=-1
SYMATTR InstName U2
TEXT -232 -152 Left 2 !.ac dec 101 100 10meg
TEXT 56 -408 Left 3 ;Isolated PI compensator with TL431
