Version 4
SHEET 1 1424 680
WIRE -720 -160 -768 -160
WIRE -416 -160 -640 -160
WIRE 64 -144 -48 -144
WIRE 272 -144 64 -144
WIRE 384 -144 272 -144
WIRE 448 -144 384 -144
WIRE 560 -144 528 -144
WIRE -416 -128 -416 -160
WIRE 272 -112 272 -144
WIRE -48 -96 -48 -144
WIRE 64 -96 64 -144
WIRE -768 -80 -768 -160
WIRE 560 -64 560 -144
WIRE -416 -32 -416 -64
WIRE -48 16 -48 -16
WIRE 64 16 64 -32
WIRE 64 16 -48 16
WIRE 272 16 272 -48
WIRE 272 16 64 16
WIRE -768 112 -768 0
WIRE -416 112 -416 48
WIRE -48 112 -48 16
WIRE 560 112 560 16
FLAG -768 112 0
FLAG -416 112 0
FLAG -48 112 0
FLAG 560 112 0
FLAG 384 -144 out
SYMBOL diode -432 -128 R0
WINDOW 0 44 7 Left 2
WINDOW 3 43 38 Left 2
SYMATTR InstName D1
SYMATTR Value Diode
SYMBOL res -624 -176 R90
WINDOW 0 0 56 VBottom 2
WINDOW 3 32 56 VTop 2
SYMATTR InstName R1
SYMATTR Value 10k
SYMBOL voltage -768 -96 R0
WINDOW 123 42 56 Left 2
WINDOW 39 0 0 Left 0
SYMATTR Value2 AC 1
SYMATTR InstName V1
SYMATTR Value 10
SYMBOL Misc\\Gpoly -48 0 R180
WINDOW 0 24 104 Left 2
WINDOW 3 45 55 Left 2
SYMATTR InstName G1
SYMATTR Value value={CTR*i(Vs)}
SYMBOL cap 48 -96 R0
SYMATTR InstName C1
SYMATTR Value {Cop}
SYMBOL res 544 -160 R90
WINDOW 0 0 56 VBottom 2
WINDOW 3 32 56 VTop 2
SYMATTR InstName R2
SYMATTR Value 10k
SYMBOL voltage 560 -80 R0
SYMATTR InstName V2
SYMATTR Value 10
SYMBOL voltage -416 -48 R0
WINDOW 123 0 0 Left 0
WINDOW 39 0 0 Left 0
WINDOW 0 44 49 Left 2
WINDOW 3 48 81 Left 2
SYMATTR InstName Vs
SYMATTR Value 0
SYMBOL diode 288 -48 R180
WINDOW 0 24 64 Left 2
WINDOW 3 24 0 Left 2
SYMATTR InstName D2
SYMATTR Value Diode1
TEXT -544 192 Left 2 !.model Diode D(Ron={Rd} Roff=1meg Vfwd={Vf} Vrev=100)
TEXT -200 -352 Left 2 !.param Rd=10\n.param Vf=1\n.param CTR=0.5\n.param Cop=1n
TEXT -656 -288 Left 2 !.ac dec 101 100 1meg
TEXT -544 240 Left 2 !.model Diode1 D(Ron={10m} Roff=1meg Vfwd={10m} Vrev=100)
TEXT -216 -208 Left 2 ;OPTOCOUPLER MODEL
RECTANGLE Normal 336 160 -528 -192 2
